/*--------------------------------*- C++ -*----------------------------------*\
| =========                 |                                                 |
| \\      /  F ield         | OpenFOAM: The Open Source CFD Toolbox           |
|  \\    /   O peration     | Version:  4.x                                   |
|   \\  /    A nd           | Web:      www.OpenFOAM.org                      |
|    \\/     M anipulation  |                                                 |
\*---------------------------------------------------------------------------*/
FoamFile
{
    version     2.0;
    format      ascii;
    class       dictionary;
    location    "system";
    object      fvSolution;
}
// * * * * * * * * * * * * * * * * * * * * * * * * * * * * * * * * * * * * * //

solvers
{
    p
    {
        solver          GAMG;
        tolerance       1e-06;
        relTol          0.1;
        smoother        GaussSeidel;
    }

    pFinal
    {
        $p;
        smoother        DICGaussSeidel;
        tolerance       1e-06;
        relTol          0;
    }

    "(U|k|epsilon)"
    {
        solver          smoothSolver;
        smoother        symGaussSeidel;
        nsweeps         3;
        tolerance       1e-06;
        relTol          0.01;
    }

    "(U|k|epsilon|omega)Final"
    {
        $U;
        tolerance       1e-05;
        relTol          0;
    }

    omega
    {
        solver          PBiCG;
        preconditioner  DILU;
        tolerance       1e-30;
        relTol          0.001;
    }

    R
    {
        solver          PBiCG;
        preconditioner  DILU;
        tolerance       1e-30;
        relTol          0.001;
    }

    nuTilda
    {
        solver          PBiCG;
        preconditioner  DILU;
        tolerance       1e-30;
        relTol          0.001;
    }


}

PIMPLE
{
    nOuterCorrectors 1;
    nCorrectors     2;
    nNonOrthogonalCorrectors 0;
    pRefCell        1001;
    pRefValue       0;
}

SIMPLE
{
    nNonOrthogonalCorrectors 0;
    residualControl
    {
        p               1e-3;
        U               1e-6;
        "(k|epsilon)"   1e-6;
    }
    pRefCell        0;
    pRefValue       0;

}

PISO
{   
    nCorrectors     2;
    nNonOrthogonalCorrectors 0;
    pRefCell        0;
    pRefValue       0;
}

relaxationFactors
{
    fields
    {
        p               0.3;
    }   
    equations
    {
        U               0.6;
        k               0.7;
        "epsilon.*"     0.7;
        omega           0.7;
        R               0.7;
        nuTilda         0.7;
        yPhi            1.0;
    }   
}   

cache
{
    grad(U);
}   
// ************************************************************************* //
