/*--------------------------------*- C++ -*----------------------------------*\
| =========                 |                                                 |
| \\      /  F ield         | OpenFOAM: The Open Source CFD Toolbox           |
|  \\    /   O peration     | Version:  4.x                                   |
|   \\  /    A nd           | Web:      www.OpenFOAM.org                      |
|    \\/     M anipulation  |                                                 |
\*---------------------------------------------------------------------------*/
FoamFile
{
    version     2.0;
    format      ascii;
    class       dictionary;
    location    "constant";
    object      TF_Predictor_Dict;
}
// * * * * * * * * * * * * * * * * * * * * * * * * * * * * * * * * * * * * * //

model
{
    readFromPB                yes;
    modelDirectory            "graph/Data_Grad_Model_TF2.pb";
    tags                      "serve";       // use savedmodel-cli to check the tags for saved model
    copyMethod                Eigen;        // Eigen for fast
    layout                    ColMajor;    // ColMajor or RowMajor
    inputs                    ("Input");       //Node name for inputs, use space to separate multiple inputs: (a b c d)
    outputs                   ("Identity");              //Node name for outputs
}


// model
// {
//     readFromPB                yes;
//     modelDirectory            "graph/output_graph.pb";
//     //tags                      serve;
//     copyMethod                Eigen;           // Eigen for fast
//     layout                    ColMajor;        // ColMajor or RowMajor
//     inputs                    ("Lamda_in/Placeholder");       //Node name for inputs, use space to separate multiple inputs: (a b c d)
//     outputs                   ("layer_out/Wx_plus_b/Add");        //Node name for outputs
// }



// ************************************************************************* //
