/*--------------------------------*- C++ -*----------------------------------*\
| =========                 |                                                 |
| \\      /  F ield         | OpenFOAM: The Open Source CFD Toolbox           |
|  \\    /   O peration     | Version:  4.1                                   |
|   \\  /    A nd           | Web:      www.OpenFOAM.org                      |
|    \\/     M anipulation  |                                                 |
\*---------------------------------------------------------------------------*/
FoamFile
{
    version     2.0;
    format      ascii;
    class       polyBoundaryMesh;
    location    "0.005/polyMesh";
    object      boundary;
}
// * * * * * * * * * * * * * * * * * * * * * * * * * * * * * * * * * * * * * //

6
(
    back
    {
        type            empty;
        inGroups        1(empty);
        nFaces          199;
        startFace       198;
    }
    bottom
    {
        type            empty;
        inGroups        1(empty);
        nFaces          199;
        startFace       397;
    }
    front
    {
        type            empty;
        inGroups        1(empty);
        nFaces          199;
        startFace       596;
    }
    left
    {
        type            patch;
        nFaces          1;
        startFace       795;
    }
    right
    {
        type            patch;
        nFaces          1;
        startFace       796;
    }
    top
    {
        type            empty;
        inGroups        1(empty);
        nFaces          199;
        startFace       797;
    }
)

// ************************************************************************* //
